* Russian DIGITAL LIBRARY 
*
* ----------------------------------------------------------- K155LA3 ------
*  Quad 2-Input Nand Gates
*
*  The TTL Logic Data Book, 1988, TI Pages 2-3 to 2-7
*  bss    2/2/94
*
.SUBCKT K155LA3 1 2 3
+     optional: DPWR=$G_DPWR DGND=$G_DGND
+     params: MNTYMXDLY=0 IO_LEVEL=0

U1 nand(2) DPWR DGND
+     1 2 3
+     DLY_00 IO_STD MNTYMXDLY={MNTYMXDLY} IO_LEVEL={IO_LEVEL}

.model DLY_00 ugate (tplhTY=11ns tplhMX=22ns tphlTY=7ns tphlMX=15ns)

.ENDS  K155LA3
*

* ----------------------------------------------------------- K155LA3_X4 ------
*  Quad 2-Input Nand Gates
*
*  The TTL Logic Data Book, 1988, TI Pages 2-3 to 2-7
*  bss    2/2/94
*
.SUBCKT K155LA3_X4 1 2 3 4 5 6 7 8 9 10 11 12
+     optional: DPWR=$G_DPWR DGND=$G_DGND
+     params: MNTYMXDLY=0 IO_LEVEL=0

U1 nand(2) DPWR DGND
+     1 2 3
+     DLY_00 IO_STD MNTYMXDLY={MNTYMXDLY} IO_LEVEL={IO_LEVEL}

U2 nand(2) DPWR DGND
+     4 5 6
+     DLY_00 IO_STD MNTYMXDLY={MNTYMXDLY} IO_LEVEL={IO_LEVEL}

U3 nand(2) DPWR DGND
+     7 8 9
+     DLY_00 IO_STD MNTYMXDLY={MNTYMXDLY} IO_LEVEL={IO_LEVEL}

U4 nand(2) DPWR DGND
+     10 11 12
+     DLY_00 IO_STD MNTYMXDLY={MNTYMXDLY} IO_LEVEL={IO_LEVEL}

.model DLY_00 ugate (tplhTY=11ns tplhMX=22ns tphlTY=7ns tphlMX=15ns)

.ENDS  K155LA3_X4
*


*
* ----------------------------------------------------------- K155LE1 ------
*  Quad 2-Input Nor Gates
*
*  The TTL Logic Data Book, 1988, TI Pages 2-13 to 2-17
*  bss    2/3/94
*
.SUBCKT K155LE1  2 3 1
+     optional: DPWR=$G_DPWR DGND=$G_DGND
+     params: MNTYMXDLY=0 IO_LEVEL=0

U1 nor(2) DPWR DGND
+     2 3 1
+     DLY_02 IO_STD MNTYMXDLY={MNTYMXDLY} IO_LEVEL={IO_LEVEL}

.model DLY_02 ugate (tplhTY=12ns tplhMX=22ns tphlTY=8ns tphlMX=15ns)

.ENDS  K155LE1
*

*
* ----------------------------------------------------------- K155LE1_X4 ------
*  Quad 2-Input Nor Gates
*
*  The TTL Logic Data Book, 1988, TI Pages 2-13 to 2-17
*  bss    2/3/94
*
.SUBCKT K155LE1_X4  1 2 3 4 5 6 7 8 9 10 11 12
+     optional: DPWR=$G_DPWR DGND=$G_DGND
+     params: MNTYMXDLY=0 IO_LEVEL=0

U1 nor(2) DPWR DGND
+     1 2 3
+     DLY_02 IO_STD MNTYMXDLY={MNTYMXDLY} IO_LEVEL={IO_LEVEL}

U2 nor(2) DPWR DGND
+     4 5 6
+     DLY_02 IO_STD MNTYMXDLY={MNTYMXDLY} IO_LEVEL={IO_LEVEL}

U3 nor(2) DPWR DGND
+     7 8 9
+     DLY_02 IO_STD MNTYMXDLY={MNTYMXDLY} IO_LEVEL={IO_LEVEL}

U4 nor(2) DPWR DGND
+     10 11 12
+     DLY_02 IO_STD MNTYMXDLY={MNTYMXDLY} IO_LEVEL={IO_LEVEL}

.model DLY_02 ugate (tplhTY=12ns tplhMX=22ns tphlTY=8ns tphlMX=15ns)

.ENDS  K155LE1_X4
*


*
* ----------------------------------------------------------- K155LN1 ------
*  Hex Inverters
*
*  The TTL Logic Data Book, 1988, TI Pages 2-25 to 2-29
*  bss    2/3/94
*
.SUBCKT K155LN1  1 2
+     optional: DPWR=$G_DPWR DGND=$G_DGND
+     params: MNTYMXDLY=0 IO_LEVEL=0

U1 inv DPWR DGND
+     1 2
+     DLY_04 IO_STD MNTYMXDLY={MNTYMXDLY} IO_LEVEL={IO_LEVEL}

.model DLY_04 ugate (tplhTY=12ns tplhMX=22ns tphlTY=8ns tphlMX=15ns)

.ENDS  K155LN1


*
*
* ----------------------------------------------------------- K155LN1_X6 ------
*  Hex Inverters
*
*  The TTL Logic Data Book, 1988, TI Pages 2-25 to 2-29
*  bss    2/3/94
*
.SUBCKT K155LN1_X6  1 2 3 4 5 6 7 8 9 10 11 12
+     optional: DPWR=$G_DPWR DGND=$G_DGND
+     params: MNTYMXDLY=0 IO_LEVEL=0

U1 inv DPWR DGND
+     1 2
+     DLY_04 IO_STD MNTYMXDLY={MNTYMXDLY} IO_LEVEL={IO_LEVEL}

U2 inv DPWR DGND
+     3 4
+     DLY_04 IO_STD MNTYMXDLY={MNTYMXDLY} IO_LEVEL={IO_LEVEL}

U3 inv DPWR DGND
+     5 6
+     DLY_04 IO_STD MNTYMXDLY={MNTYMXDLY} IO_LEVEL={IO_LEVEL}

U4 inv DPWR DGND
+     7 8
+     DLY_04 IO_STD MNTYMXDLY={MNTYMXDLY} IO_LEVEL={IO_LEVEL}

U5 inv DPWR DGND
+     9 10
+     DLY_04 IO_STD MNTYMXDLY={MNTYMXDLY} IO_LEVEL={IO_LEVEL}

U6 inv DPWR DGND
+     11 12
+     DLY_04 IO_STD MNTYMXDLY={MNTYMXDLY} IO_LEVEL={IO_LEVEL}

.model DLY_04 ugate (tplhTY=12ns tplhMX=22ns tphlTY=8ns tphlMX=15ns)

.ENDS  K155LN1_X6
*
*
* ----------------------------------------------------------- K155LI1 ------
*  Quad 2-Input And Gates   
*
*  The TTL Logic Data Book, 1988, TI Pages 2-41 to 2-45
*  bss    2/3/94
*
.SUBCKT K155LI1   1 2 3
+     optional: DPWR=$G_DPWR DGND=$G_DGND
+     params: MNTYMXDLY=0 IO_LEVEL=0

U1 and(2) DPWR DGND
+     1 2 3
+     DLY_08 IO_STD MNTYMXDLY={MNTYMXDLY} IO_LEVEL={IO_LEVEL}

.model DLY_08 ugate (tplhTY=17.5ns tplhMX=27ns tphlTY=12ns tphlMX=19ns)

.ENDS  K155LI1

*
*
* ----------------------------------------------------------- K155LI1_X4 ------
*  Quad 2-Input And Gates   
*
*  The TTL Logic Data Book, 1988, TI Pages 2-41 to 2-45
*  bss    2/3/94
*
.SUBCKT K155LI1_X4   1 2 3 4 5 6 7 8 9 10 11 12
+     optional: DPWR=$G_DPWR DGND=$G_DGND
+     params: MNTYMXDLY=0 IO_LEVEL=0

U1 and(2) DPWR DGND
+     1 2 3
+     DLY_08 IO_STD MNTYMXDLY={MNTYMXDLY} IO_LEVEL={IO_LEVEL}

U2 and(2) DPWR DGND
+     4 5 6
+     DLY_08 IO_STD MNTYMXDLY={MNTYMXDLY} IO_LEVEL={IO_LEVEL}

U3 and(2) DPWR DGND
+     7 8 9
+     DLY_08 IO_STD MNTYMXDLY={MNTYMXDLY} IO_LEVEL={IO_LEVEL}

U4 and(2) DPWR DGND
+     10 11 12
+     DLY_08 IO_STD MNTYMXDLY={MNTYMXDLY} IO_LEVEL={IO_LEVEL}


.model DLY_08 ugate (tplhTY=17.5ns tplhMX=27ns tphlTY=12ns tphlMX=19ns)
.ENDS  K155LI1_X4


* ----------------------------------------------------------- K155LA4 ------
*  Triple 3-Input Nand Gates
*
*  The TTL Logic Data Book, 1988, TI Pages 2-53 to 2-57
*  bss    2/4/94
*
.SUBCKT K155LA4  1 2 13 12
+     optional: DPWR=$G_DPWR DGND=$G_DGND
+     params: MNTYMXDLY=0 IO_LEVEL=0

U1 nand(3) DPWR DGND
+     1 2 13 12
+     DLY_10 IO_STD MNTYMXDLY={MNTYMXDLY} IO_LEVEL={IO_LEVEL}

.model DLY_10 ugate (tplhTY=11ns tplhMX=22ns tphlTY=7ns tphlMX=15ns)

.ENDS  K155LA4
*
*
* ----------------------------------------------------------- K155LA4_X3 ------
*  Triple 3-Input Nand Gates
*
*  The TTL Logic Data Book, 1988, TI Pages 2-53 to 2-57
*  bss    2/4/94
*
.SUBCKT K155LA4_X3  1 2 3 4 5 6 7 8 9 10 11 12
+     optional: DPWR=$G_DPWR DGND=$G_DGND
+     params: MNTYMXDLY=0 IO_LEVEL=0

U1 nand(3) DPWR DGND
+     1 2 3 4
+     DLY_10 IO_STD MNTYMXDLY={MNTYMXDLY} IO_LEVEL={IO_LEVEL}

U2 nand(3) DPWR DGND
+     5 6 7 8
+     DLY_10 IO_STD MNTYMXDLY={MNTYMXDLY} IO_LEVEL={IO_LEVEL}

U3 nand(3) DPWR DGND
+     9 10 11 12
+     DLY_10 IO_STD MNTYMXDLY={MNTYMXDLY} IO_LEVEL={IO_LEVEL}

.model DLY_10 ugate (tplhTY=11ns tplhMX=22ns tphlTY=7ns tphlMX=15ns)

.ENDS  K155LA4_X3
*
*


* ----------------------------------------------------------- K555LI3 ------
*  Triple 3-Input And Gates
*
*  The TTL Data Book, Vol. 2, 1985, TI Pages 3-65 to 3-69
*  bss    2/4/94
*
.SUBCKT K555LI3  1 2 13 12
+     optional: DPWR=$G_DPWR DGND=$G_DGND
+     params: MNTYMXDLY=0 IO_LEVEL=0

U1 and(3) DPWR DGND
+     1 2 13 12
+     DLY_H11 IO_H MNTYMXDLY={MNTYMXDLY} IO_LEVEL={IO_LEVEL}

.model DLY_H11 ugate (tplhTY=7.6ns tplhMX=12ns tphlTY=8.8ns tphlMX=12ns)

.ENDS  K555LI3

* ----------------------------------------------------------- K555LI3_X3 ------
*  Triple 3-Input And Gates
*
*  The TTL Data Book, Vol. 2, 1985, TI Pages 3-65 to 3-69
*  bss    2/4/94
*
.SUBCKT K555LI3_X3  1 2 3 4 5 6 7 8 9 10 11 12
+     optional: DPWR=$G_DPWR DGND=$G_DGND
+     params: MNTYMXDLY=0 IO_LEVEL=0

U1 and(3) DPWR DGND
+     1 2 3 4
+     DLY_H11 IO_H MNTYMXDLY={MNTYMXDLY} IO_LEVEL={IO_LEVEL}

U2 and(3) DPWR DGND
+     5 6 7 8
+     DLY_H11 IO_H MNTYMXDLY={MNTYMXDLY} IO_LEVEL={IO_LEVEL}

U3 and(3) DPWR DGND
+     9 10 11 12
+     DLY_H11 IO_H MNTYMXDLY={MNTYMXDLY} IO_LEVEL={IO_LEVEL}

.model DLY_H11 ugate (tplhTY=7.6ns tplhMX=12ns tphlTY=8.8ns tphlMX=12ns)

.ENDS  K555LI3_X3

*
*


*
*
* ----------------------------------------------------------- K155LP4 ------
*  Hex Buffers/Drivers With Open-Collector High-Voltage Outputs
*
*  The TTL Logic Data Book, 1988, TI Pages 2-39 to 2-40
*  bss    2/3/94
*
.SUBCKT K155LP4  1 2
+     optional: DPWR=$G_DPWR DGND=$G_DGND
+     params: MNTYMXDLY=0 IO_LEVEL=0

U1 buf DPWR DGND
+     1 2
+     DLY_17 IO_STD_OC MNTYMXDLY={MNTYMXDLY} IO_LEVEL={IO_LEVEL}

.model DLY_17 ugate (tplhTY=6ns tplhMX=15ns tphlTY=20ns tphlMX=26ns)

.ENDS  K155LP4


*
*
* ----------------------------------------------------------- K155LA1 ------
*  Dual 4-Input Nand Gates 
*
*  The TTL Logic Data Book, 1988, TI Pages 2-95 to 2-99
*  bss    2/4/94
*
.SUBCKT K155LA1  1 2 4 5 6
+     optional: DPWR=$G_DPWR DGND=$G_DGND
+     params: MNTYMXDLY=0 IO_LEVEL=0

U1 nand(4) DPWR DGND
+     1 2 4 5 6
+     DLY_20 IO_STD MNTYMXDLY={MNTYMXDLY} IO_LEVEL={IO_LEVEL}

.model DLY_20 ugate (tplhTY=12ns tplhMX=22ns tphlTY=8ns tphlMX=15ns)

.ENDS  K155LA1


*
*
* ----------------------------------------------------------- K155LA1_X2 ------
*  Dual 4-Input Nand Gates 
*
*  The TTL Logic Data Book, 1988, TI Pages 2-95 to 2-99
*  bss    2/4/94
*
.SUBCKT K155LA1_X2  1 2 3 4 5 6 7 8 9 10
+     optional: DPWR=$G_DPWR DGND=$G_DGND
+     params: MNTYMXDLY=0 IO_LEVEL=0

U1 nand(4) DPWR DGND
+     1 2 3 4 5
+     DLY_20 IO_STD MNTYMXDLY={MNTYMXDLY} IO_LEVEL={IO_LEVEL}

U2 nand(4) DPWR DGND
+     6 7 8 9 10
+     DLY_20 IO_STD MNTYMXDLY={MNTYMXDLY} IO_LEVEL={IO_LEVEL}

.model DLY_20 ugate (tplhTY=12ns tplhMX=22ns tphlTY=8ns tphlMX=15ns)

.ENDS  K155LA1_X2

*
*
* ----------------------------------------------------------- K555LI6 ------
*  Dual 4-Input And Gates 
*
*  The TTL Data Book, Vol. 2, 1985, TI Pages 3-112 to 3-115
*  bss    2/4/94
*
.SUBCKT K555LI6  1 2 4 5 6
+     optional: DPWR=$G_DPWR DGND=$G_DGND
+     params: MNTYMXDLY=0 IO_LEVEL=0

U1 and(4) DPWR DGND
+     1 2 4 5 6
+     DLY_H21 IO_H MNTYMXDLY={MNTYMXDLY} IO_LEVEL={IO_LEVEL}

.model DLY_H21 ugate (tplhTY=7.6ns tplhMX=12ns tphlTY=8.8ns tphlMX=12ns)

.ENDS  K555LI6


*
*
* ----------------------------------------------------------- K555LI6_X2 ------
*  Dual 4-Input And Gates 
*
*  The TTL Data Book, Vol. 2, 1985, TI Pages 3-112 to 3-115
*  bss    2/4/94
*
.SUBCKT K555LI6_X2  1 2 3 4 5 6 7 8 9 10
+     optional: DPWR=$G_DPWR DGND=$G_DGND
+     params: MNTYMXDLY=0 IO_LEVEL=0

U1 and(4) DPWR DGND
+     1 2 3 4 5
+     DLY_H21 IO_H MNTYMXDLY={MNTYMXDLY} IO_LEVEL={IO_LEVEL}

U2 and(4) DPWR DGND
+     6 7 8 9 10
+     DLY_H21 IO_H MNTYMXDLY={MNTYMXDLY} IO_LEVEL={IO_LEVEL}

.model DLY_H21 ugate (tplhTY=7.6ns tplhMX=12ns tphlTY=8.8ns tphlMX=12ns)

.ENDS  K555LI6_X2





*
*
* ----------------------------------------------------------- K155LE4 ------
*  Triple 3-Input Nor Gates
*
*  The TTL Logic Data Book, 1988, TI Pages 2-119 to 2-122
*  bss    2/7/94
*
.SUBCKT K155LE4  1 2 13 12
+     optional: DPWR=$G_DPWR DGND=$G_DGND
+     params: MNTYMXDLY=0 IO_LEVEL=0

U1 nor(3) DPWR DGND
+     1 2 13 12
+     DLY_27 IO_STD MNTYMXDLY={MNTYMXDLY} IO_LEVEL={IO_LEVEL}

.model DLY_27 ugate (tplhTY=10ns tplhMX=15ns tphlTY=7ns tphlMX=11ns)

.ENDS  K155LE4


*
*
* ----------------------------------------------------------- K155LE4_X3 ------
*  Triple 3-Input Nor Gates
*
*  The TTL Logic Data Book, 1988, TI Pages 2-119 to 2-122
*  bss    2/7/94
*
.SUBCKT K155LE4_X3  1 2 3 4 5 6 7 8 9 10 11 12
+     optional: DPWR=$G_DPWR DGND=$G_DGND
+     params: MNTYMXDLY=0 IO_LEVEL=0

U1 nor(3) DPWR DGND
+     1 2 3 4
+     DLY_27 IO_STD MNTYMXDLY={MNTYMXDLY} IO_LEVEL={IO_LEVEL}

U2 nor(3) DPWR DGND
+     5 6 7 8
+     DLY_27 IO_STD MNTYMXDLY={MNTYMXDLY} IO_LEVEL={IO_LEVEL}

U3 nor(3) DPWR DGND
+     9 10 11 12
+     DLY_27 IO_STD MNTYMXDLY={MNTYMXDLY} IO_LEVEL={IO_LEVEL}

.model DLY_27 ugate (tplhTY=10ns tplhMX=15ns tphlTY=7ns tphlMX=11ns)

.ENDS  K155LE4_X3



*
*
* ----------------------------------------------------------- K155LA2 ------
*  8-Input Nand Gates
*
*  The TTL Logic Data Book, 1988, TI Pages 2-127 to 2-131
*  bss    2/8/94
*
.SUBCKT K155LA2  1 2 3 4 5 6 11 12 8
+     optional: DPWR=$G_DPWR DGND=$G_DGND
+     params: MNTYMXDLY=0 IO_LEVEL=0

U1 nand(8) DPWR DGND
+     1 2 3 4 5 6 11 12 8
+     DLY_30 IO_STD MNTYMXDLY={MNTYMXDLY} IO_LEVEL={IO_LEVEL}

.model DLY_30 ugate (tplhTY=13ns tplhMX=22ns tphlTY=8ns tphlMX=15ns)

.ENDS  K155LA2


*
*
* ----------------------------------------------------------- K155LL1 ------
*  Quad 2-Input Or Gates
*
*  The TTL Logic Data Book, 1988, TI Pages 2-137 to 2-141
*  bss    2/9/94
*
.SUBCKT K155LL1  1 2 3
+     optional: DPWR=$G_DPWR DGND=$G_DGND
+     params: MNTYMXDLY=0 IO_LEVEL=0

U1 or(2) DPWR DGND
+     1 2 3
+     DLY_32 IO_STD MNTYMXDLY={MNTYMXDLY} IO_LEVEL={IO_LEVEL}

.model DLY_32 ugate (tplhTY=10ns tplhMX=15ns tphlTY=14ns tphlMX=22ns)

.ENDS  K155LL1

*
*
* ----------------------------------------------------------- K155LL1_X4 ------
*  Quad 2-Input Or Gates
*
*  The TTL Logic Data Book, 1988, TI Pages 2-137 to 2-141
*  bss    2/9/94
*
.SUBCKT K155LL1_X4  1 2 3 4 5 6 7 8 9 10 11 12
+     optional: DPWR=$G_DPWR DGND=$G_DGND
+     params: MNTYMXDLY=0 IO_LEVEL=0

U1 or(2) DPWR DGND
+     1 2 3
+     DLY_32 IO_STD MNTYMXDLY={MNTYMXDLY} IO_LEVEL={IO_LEVEL}

U2 or(2) DPWR DGND
+     4 5 6
+     DLY_32 IO_STD MNTYMXDLY={MNTYMXDLY} IO_LEVEL={IO_LEVEL}

U3 or(2) DPWR DGND
+     7 8 9
+     DLY_32 IO_STD MNTYMXDLY={MNTYMXDLY} IO_LEVEL={IO_LEVEL}

U4 or(2) DPWR DGND
+     10 11 12
+     DLY_32 IO_STD MNTYMXDLY={MNTYMXDLY} IO_LEVEL={IO_LEVEL}

.model DLY_32 ugate (tplhTY=10ns tplhMX=15ns tphlTY=14ns tphlMX=22ns)

.ENDS  K155LL1_X4



*
*
* ----------------------------------------------------------- K555ID6 ------
*  4-Line BCD to 10-Line Decimal Decoder
*
*  The TTL Logic Data Book, 1988, TI Pages 2-167 to 2-172
*  bss    2/10/94
*
.SUBCKT K555ID6  15 14 13 12
+      1 2 3 4 5 6 7 9 10 11
+      optional: DPWR=$G_DPWR DGND=$G_DGND
+      params: MNTYMXDLY=0 IO_LEVEL=0

U1 LOGICEXP (4,10) DPWR DGND
+      15 14 13 12
+      O0_O O1_O O2_O O3_O O4_O O5_O O6_O O7_O O8_O O9_O
+      D0_GATE IO_STD IO_LEVEL={IO_LEVEL}
+
+  LOGIC:
+     abar = {~15}
+     bbar = {~14}
+     cbar = {~13}
+     dbar = {~12}
+
+     O0_O = {~(abar & bbar & cbar & dbar)}
+     O1_O = {~(15 & bbar & cbar & dbar)}
+     O2_O = {~(abar & 14 & cbar & dbar)}
+     O3_O = {~(15 & 14 & cbar & dbar)}
+     O4_O = {~(abar & bbar & 13 & dbar)}
+     O5_O = {~(15 & bbar & 13 & dbar)}
+     O6_O = {~(abar & 14 & 13 & dbar)}
+     O7_O = {~(15 & 14 & 13 & dbar)}
+     O8_O = {~(abar & bbar & cbar & 12)}
+     O9_O = {~(15 & bbar & cbar & 12)}

U2 PINDLY (10,0,4) DPWR DGND
+      O0_O O1_O O2_O O3_O O4_O O5_O O6_O O7_O O8_O O9_O
+      15 14 13 12
+      1 2 3 4 5 6 7 9 10 11
+      IO_STD MNTYMXDLY={MNTYMXDLY} IO_LEVEL={IO_LEVEL}
+
+  BOOLEAN:
+      ATRAN = {CHANGED(15,0)}
+      BTRAN = {CHANGED(14,0)}
+      CTRAN = {CHANGED(13,0)}
+      DTRAN = {CHANGED(12,0)}
+
+  PINDLY:
+      1 = {
+        CASE(
+           TRN_LH, DELAY(-1,10ns,25ns),
+           TRN_HL, DELAY(-1,14ns,25ns),
+          DELAY(-1,14ns,25ns))}
+
+      2 = {
+        CASE(
+           ATRAN, DELAY(-1,17ns,30ns),
+           TRN_LH, DELAY(-1,10ns,25ns),
+           TRN_HL, DELAY(-1,14ns,25ns),
+          DELAY(-1,17ns,30ns))}
+
+      3 = {
+        CASE(
+           BTRAN, DELAY(-1,17ns,30ns),
+           TRN_LH, DELAY(-1,10ns,25ns),
+           TRN_HL, DELAY(-1,14ns,25ns),
+          DELAY(-1,17ns,30ns))}
+
+      4 = {
+        CASE(
+           ATRAN | BTRAN, DELAY(-1,17ns,30ns),
+           TRN_LH, DELAY(-1,10ns,25ns),
+           TRN_HL, DELAY(-1,14ns,25ns),
+          DELAY(-1,17ns,30ns))}
+
+      5 = {
+        CASE(
+           CTRAN, DELAY(-1,17ns,30ns),
+           TRN_LH, DELAY(-1,10ns,25ns),
+           TRN_HL, DELAY(-1,14ns,25ns),
+          DELAY(-1,17ns,30ns))}
+
+      6 = {
+        CASE(
+           ATRAN | CTRAN, DELAY(-1,17ns,30ns),
+           TRN_LH, DELAY(-1,10ns,25ns),
+           TRN_HL, DELAY(-1,14ns,25ns),
+          DELAY(-1,17ns,30ns))}
+
+      7 = {
+        CASE(
+           BTRAN | CTRAN, DELAY(-1,17ns,30ns),
+           TRN_LH, DELAY(-1,10ns,25ns),
+           TRN_HL, DELAY(-1,14ns,25ns),
+          DELAY(-1,17ns,30ns))}
+
+      9 = {
+        CASE(
+           ATRAN | BTRAN | CTRAN, DELAY(-1,17ns,30ns),
+           TRN_LH, DELAY(-1,10ns,25ns),
+           TRN_HL, DELAY(-1,14ns,25ns),
+          DELAY(-1,17ns,30ns))}
+
+      10 = {
+        CASE(
+           DTRAN, DELAY(-1,17ns,30ns),
+           TRN_LH, DELAY(-1,10ns,25ns),
+           TRN_HL, DELAY(-1,14ns,25ns),
+          DELAY(-1,17ns,30ns))}
+
+      11 = {
+        CASE(
+           ATRAN | DTRAN, DELAY(-1,17ns,30ns),
+           TRN_LH, DELAY(-1,10ns,25ns),
+           TRN_HL, DELAY(-1,14ns,25ns),
+          DELAY(-1,17ns,30ns))}

.ENDS K555ID6
*
*
* ----------------------------------------------------------- K155LR1 ------
*  Dual 2-Wide 2-Input And-Or-Invert Gates (One Gate Expandable)
*
*  The TTL Logic Data Book, 1988, TI Pages 2-189 to 2-191
*  bss    2/14/94
*  The X inputs can only come from a 60 gate
*
.SUBCKT K155LR1 1 13 9 10 11 12 2 3 4 5 8 6
+     optional:  DPWR=$G_DPWR DGND=$G_DGND
+     params:  MNTYMXDLY=0 IO_LEVEL=0

U1 inv DPWR DGND
+    12 1XB
+    D0_GATE IO_STD MNTYMXDLY={MNTYMXDLY} IO_LEVEL={IO_LEVEL}

U2 aoi(2,3) DPWR DGND
+    1 13
+    9 10
+    11 1XB
+    8
+    DLY_50 IO_STD MNTYMXDLY={MNTYMXDLY} IO_LEVEL={IO_LEVEL}

U3 aoi(2,2) DPWR DGND
+    2 3
+    4 5
+    6
+    DLY_50 IO_STD MNTYMXDLY={MNTYMXDLY} IO_LEVEL={IO_LEVEL}

.model DLY_50 ugate (tplhTY=13ns tplhMX=22ns tphlTY=8ns tphlMX=15ns)

.ENDS K155LR1
*
*
* ---------------------------------------------------------KR531LR11 ------
*  And-Or-Invert Gates
*
*  The TTL Logic Data Book, 1988, TI Pages 2-193 to 2-198
*  bss    2/14/94
*
.SUBCKT KR531LR11 1 13 9 10 8
+     optional:  DPWR=$G_DPWR DGND=$G_DGND
+     params:  MNTYMXDLY=0 IO_LEVEL=0

U1 aoi(2,2) DPWR DGND
+    1 13
+    9 10
+    8
+    DLY_51 IO_STD MNTYMXDLY={MNTYMXDLY} IO_LEVEL={IO_LEVEL}

.model DLY_51 ugate (tplhTY=13ns tplhMX=22ns tphlTY=8ns tphlMX=15ns)

.ENDS KR531LR11
*
*
* ----------------------------------------------------------- K555LR11 ------
*  And-Or-Invert Gates
*
*  The TTL Logic Data Book, 1988, TI Pages 2-193 to 2-198
*  bss    2/14/94
*
.SUBCKT K555LR11 1 13 12 11 10 9 2 3 4 5 8 6
+     optional:  DPWR=$G_DPWR DGND=$G_DGND
+     params:  MNTYMXDLY=0 IO_LEVEL=0

U1 aoi(3,2) DPWR DGND
+    1 13 12
+    11 10 9
+    8
+    DLY_LS51 IO_LS MNTYMXDLY={MNTYMXDLY} IO_LEVEL={IO_LEVEL}

U2 aoi(2,2) DPWR DGND
+    2 3
+    4 5
+    6
+    DLY_LS51 IO_LS MNTYMXDLY={MNTYMXDLY} IO_LEVEL={IO_LEVEL}

.model DLY_LS51 ugate (tplhTY=12ns tplhMX=20ns tphlTY=12.5ns tphlMX=20ns)

.ENDS K555LR11
*
*
* ----------------------------------------------------------- K555LR13 ------
*  4-Wide And-Or-Invert Gates
*
*  The TTL Logic Data Book, 1988, TI Pages 2-201 to 2-204
*  bss    2/14/94
*
.SUBCKT K555LR13 1 2 3 4 5 9 10 11 12 13 6
+     optional:  DPWR=$G_DPWR DGND=$G_DGND
+     params:  MNTYMXDLY=0 IO_LEVEL=0

U1 aoi(3,4) DPWR DGND
+    1 2 $D_HI
+    3 4 5
+    9 10 11
+    12 13 $D_HI
+    6
+    DLY_LS54 IO_LS MNTYMXDLY={MNTYMXDLY} IO_LEVEL={IO_LEVEL}

.model DLY_LS54 ugate (tplhTY=12ns tplhMX=20ns tphlTY=12.5ns tphlMX=20ns)

.ENDS K555LR13
*
*
* ----------------------------------------------------------- K155LR4 ------
*  2-Wide 4-Input And-Or-Invert Gates
*
*  The TTL Logic Data Book, 1988, TI Pages 2-205 to 2-206
*  bss    2/15/94
*
.SUBCKT K155LR4 1 2 3 4 10 11 12 13 8
+     optional:  DPWR=$G_DPWR DGND=$G_DGND
+     params:  MNTYMXDLY=0 IO_LEVEL=0

U1 aoi(4,2) DPWR DGND
+    1 2 3 4
+    10 11 12 13
+    8
+    DLY_LS55 IO_LS MNTYMXDLY={MNTYMXDLY} IO_LEVEL={IO_LEVEL}

.model DLY_LS55 ugate (tplhTY=12ns tplhMX=20ns tphlTY=12.5ns tphlMX=20ns)

.ENDS K155LR4
*
*
* ----------------------------------------------------------- K155LD1 ------
*  Dual 4-Input Expanders
*
*  The TTL Data Book, Vol. 2, 1985, TI Pages 3-245 to 3-248
*  bss    2/16/94
*  This gate is used in conjunction with an expanded gate
*
.SUBCKT K155LD1 1 2 3 13 11 12
+     optional:  DPWR=$G_DPWR DGND=$G_DGND
+     params:  MNTYMXDLY=0 IO_LEVEL=0

U1 and(4) DPWR DGND
+    1 2 3 13
+    11
+    D0_GATE IO_STD MNTYMXDLY={MNTYMXDLY} IO_LEVEL={IO_LEVEL}

U2 inv DPWR DGND
+    11 12
+    D0_GATE IO_STD MNTYMXDLY={MNTYMXDLY} IO_LEVEL={IO_LEVEL}

.ENDS K155LD1
*
*
* ----------------------------------------------------------- KR531LR9 ------
*  4-2-3-2 Input And-Or-Invert Gates
*
*  The TTL Logic Data Book, 1988, TI Pages 2-211 to 2-214
*  bss    2/16/94
*
.SUBCKT KR531LR9 1 11 12 13 2 3 4 5 6 9 10 8
+     optional:  DPWR=$G_DPWR DGND=$G_DGND
+     params:  MNTYMXDLY=0 IO_LEVEL=0

U1 aoi(4,4) DPWR DGND
+    1 11 12 13
+    2 3 $D_HI $D_HI
+    4 5 6 $D_HI
+    9 10 $D_HI $D_HI
+    8
+    DLY_S64 IO_S MNTYMXDLY={MNTYMXDLY} IO_LEVEL={IO_LEVEL}

.model DLY_S64 ugate (tplhTY=3.5ns tplhMX=5.5ns tphlTY=3.5ns tphlMX=5.5ns)

.ENDS KR531LR9
*
*
* ----------------------------------------------------------- K155TV1 ------
*  And Gated J-K Master-Slave Flip-Flops With Preset And Clear
*
*  The TTL Logic Data Book, 1988, TI Pages 2-225 to 2-227
*  bss    2/22/94
*
.SUBCKT K155TV1 13 2 12 3 4 5 9 10 11 8 6
+     optional:  DPWR=$G_DPWR DGND=$G_DGND
+     params:  MNTYMXDLY=0 IO_LEVEL=0

U1 SRFF(1) DPWR DGND
+     13 2 12 MJ MK SJ SK
+     D0_GFF IO_STD MNTYMXDLY={MNTYMXDLY} IO_LEVEL={IO_LEVEL}

U2 SRFF(1) DPWR DGND
+     13 2 CLKBAR SJ SK Q_O QBAR_O
+     D0_GFF IO_STD MNTYMXDLY={MNTYMXDLY} IO_LEVEL={IO_LEVEL}

U3LOG LOGICEXP(9,3) DPWR DGND
+     12 3 4 5 9 10 11 Q_O QBAR_O
+     MJ MK CLKBAR
+     D0_GATE IO_STD MNTYMXDLY={MNTYMXDLY} IO_LEVEL={IO_LEVEL}
+
+   LOGIC:
+     CLKBAR={~12}
+     j={(3 & 4 & 5)}
+     k={(9 & 10 & 11)}
+     jbar={~j}
+     kbar={~k}
+     MJ={(j & k & QBAR_O) | (j & kbar)}
+     MK={(j & k & Q_O) | (jbar & k)}

U4DLY PINDLY(2,0,0) DPWR DGND
+     Q_O QBAR_O
+     8 6
+     IO_STD MNTYMXDLY={MNTYMXDLY} IO_LEVEL={IO_LEVEL}
+
+   PINDLY:
+     8={
+        CASE(
+           TRN_LH, DELAY(-1,16ns,25ns),
+           TRN_HL, DELAY(-1,25ns,40ns),
+           DELAY(-1,26ns,41ns))}
+     6={
+         CASE(
+           TRN_LH, DELAY(-1,16ns,25ns),
+           TRN_HL, DELAY(-1,25ns,40ns),
+           DELAY(-1,26ns,41ns))}

U5CON CONSTRAINT(3) DPWR DGND
+     12 13 2
+     IO_STD IO_LEVEL={IO_LEVEL}
+
+  WIDTH:
+     NODE=12
+     MIN_HI=20ns
+     MIN_LO=47ns
+
+  WIDTH:
+     NODE=13
+     MIN_LO=25ns
+
+  WIDTH:
+     NODE=2
+     MIN_LO=25ns

.ENDS K155TV1
*
*
* ----------------------------------------------------------- K155TM2 ------
*  Dual D-Type Positive Edge Triggered Flip-Flops With  Preset And Clear
*
*  The TTL Logic Data Book, 1988, TI Pages 2-235 to 2-240
*  bss    2/23/94
*
.SUBCKT K155TM2 4 1 3 2 5 6
+     optional:  DPWR=$G_DPWR DGND=$G_DGND
+     params:  MNTYMXDLY=0 IO_LEVEL=0

U1 DFF(1) DPWR DGND
+     4 1 3 2 5 6
+     DLY_74 IO_STD MNTYMXDLY={MNTYMXDLY} IO_LEVEL={IO_LEVEL}

.model DLY_74 ueff(tppcqlhMX=25ns tppcqhlMX=40ns twpclMN=30ns
+                 tpclkqlhTY=14ns tpclkqlhMX=25ns tpclkqhlTY=20ns
+                 tpclkqhlMX=40ns twclkhMN=30ns twclklMN=37ns
+                 tsudclkMN=20ns thdclkMN=5ns)

.ENDS K155TM2
*
*
* ----------------------------------------------------------- K155IM3 ------
*  4-Bit Binary Full Adders With Fast Carry
*
*  The TTL Logic Data Book, 1988, TI Pages 2-257 to 2-261
*  bss    2/25/94
*
.SUBCKT K155IM3 13 10 8 3 1 11 7 4 16 9 6 2 15 14
+     optional:  DPWR=$G_DPWR DGND=$G_DGND
+     params:  MNTYMXDLY=0 IO_LEVEL=0

U1LOG LOGICEXP(9,5) DPWR DGND
+     13 10 8 3 1 11 7 4 16
+     S1_O S2_O S3_O S4_O C4_O
+     D0_GATE IO_LS MNTYMXDLY={MNTYMXDLY} IO_LEVEL={IO_LEVEL}
+
+  LOGIC:
+     c0bar = {~13}
+     nor1 = {~(10 | 11)}
+     nand1 = {~(10 & 11)}
+     nor2 = {~(8 | 7)}
+     nand2 = {~(8 & 7)}
+     nor3 = {~(3 | 4)}
+     nand3 = {~(3 & 4)}
+     nor4 = {~(1 | 16)}
+     nand4 = {~(1 & 16)}
+     C4_O = {~(nor4 | (nor3 & nand4) | (nor2 & nand4 & nand3) | (nor1 & nand4 & nand3 & 
+             nand2) | (nand4 & nand3 & nand2 & nand1 & c0bar))}
+     S4_O = {(nand4 & (~nor4)) ^ (~(nor3 | (nor2 & nand3) | (nor1 & nand3 & nand2) |
+             (nand3 & nand2 & nand1 & c0bar)))}
+     S3_O = {(nand3 & (~nor3)) ^ (~(nor2 | (nor1 & nand2) | (nand2 & nand1 & c0bar)))}
+     S2_O = {(nand2 & (~nor2)) ^ (~(nor1 | (nand1 & c0bar)))}
+     S1_O = {(nand1 & (~nor1)) ^ 13}

U2DLY PINDLY(5,0,9) DPWR DGND
+     S1_O S2_O S3_O S4_O C4_O
+     13 10 8 3 1 11 7 4 16
+     9 6 2 15 14
+     IO_LS MNTYMXDLY={MNTYMXDLY} IO_LEVEL={IO_LEVEL}
+
+  BOOLEAN:
+     DATA = {CHANGED(10,0) | CHANGED(8,0) | CHANGED(3,0) | CHANGED(1,0) |
+                  CHANGED(11,0) | CHANGED(7,0) | CHANGED(4,0) | CHANGED(16,0)}
+     CARRY = {CHANGED(13,0)}
+
+  PINDLY:
+     9 6 2 15 = {
+        CASE(
+           CARRY & TRN_LH, DELAY(-1,16ns,24ns),
+           DATA & TRN_LH, DELAY(-1,15ns,24ns),
+           TRN_HL, DELAY(-1,15ns,24ns),
+           DELAY(-1,17ns,25ns))}
+
+     14 = {
+        CASE(
+           TRN_LH, DELAY(-1,11ns,17ns),
+           CARRY & TRN_HL, DELAY(-1,15ns,22ns),
+           DATA & TRN_HL, DELAY(-1,12ns,17ns),
+           DELAY(-1,16ns,23ns))}

.ENDS K155IM3
*
*
* ----------------------------------------------------------- K555SP1 ------
*  4-Bit Magnitude Comparators
*
*  The TTL Logic Data Book, 1988, TI Pages 2-263 to 2-269
*  bss    2/25/94
*
.SUBCKT K555SP1 10 12 13 15 2 3 4 9 11 14 1 7 6 5
+     optional:  DPWR=$G_DPWR DGND=$G_DGND
+     params:  MNTYMXDLY=0 IO_LEVEL=0

U1LOG LOGICEXP(11,3) DPWR DGND
+     10 12 13 15 2 3 4 9 11 14 1
+     ALTBO_O AEQBO_O AGTBO_O
+     D0_GATE IO_STD MNTYMXDLY={MNTYMXDLY} IO_LEVEL={IO_LEVEL}
+
+  LOGIC:
+     nand3 = {~(15 & 1)}
+     nand2 = {~(13 & 14)}
+     nand1 = {~(12 & 11)}
+     nand0 = {~(10 & 9)}
+     nor3 = {~((15 & nand3) | (1 & nand3))}
+     nor2 = {~((13 & nand2) | (14 & nand2))}
+     nor1 = {~((12 & nand1) | (11 & nand1))}
+     nor0 = {~((10 & nand0) | (9 & nand0))}
+     AGTBO_O = {~((1 & nand3) | (14 & nand2 & nor3) | (11 & nand1 & nor3 & nor2) |
+          (9 & nand0 & nor3 & nor2 & nor1) | (nor3 & nor2 & nor1 & nor0 & 2) |
+          (nor3 & nor2 & nor1 & nor0 & 3))}
+     AEQBO_O = {nor3 & nor2 & 3 & nor1 & nor0}
+     ALTBO_O = {~((15 & nand3) | (13 & nand2 & nor3) | (12 & nand1 & nor3 & nor2) |
+          (10 & nand0 & nor3 & nor2 & nor1) | (nor3 & nor2 & nor1 & nor0 & 4) |
+          (nor3 & nor2 & nor1 & nor0 & 3))}

U2DLY PINDLY(3,0,11) DPWR DGND
+     ALTBO_O AEQBO_O AGTBO_O
+     10 12 13 15 2 3 4 9 11 14 1
+     7 6 5
+     IO_STD MNTYMXDLY={MNTYMXDLY} IO_LEVEL={IO_LEVEL}
+
+  BOOLEAN:
+     DATA = {CHANGED(10,0) | CHANGED(12,0) | CHANGED(13,0) | CHANGED(15,0) |
+                 CHANGED(9,0) | CHANGED(11,0) | CHANGED(14,0) | CHANGED(1,0)}
+     LTHAN = {CHANGED(2,0)}
+     GTHAN = {CHANGED(4,0)}
+     EQUAL = {CHANGED(3,0)}
+
+  PINDLY:
+     6 = {
+        CASE(
+           DATA & TRN_LH, DELAY(-1,23ns,35ns),
+           DATA & TRN_HL, DELAY(-1,20ns,30ns),
+           EQUAL & TRN_LH, DELAY(-1,13ns,20ns),
+           EQUAL & TRN_HL, DELAY(-1,11ns,17ns),
+           DELAY(-1,24ns,36ns))}
+
+     7 5 = {
+        CASE(
+           DATA & TRN_LH, DELAY(-1,17ns,26ns),
+           DATA & TRN_HL, DELAY(-1,20ns,30ns),
+           (LTHAN | EQUAL | GTHAN) & TRN_LH, DELAY(-1,7ns,11ns),
+           (LTHAN | EQUAL | GTHAN) & TRN_HL, DELAY(-1,11ns,17ns),
+           DELAY(-1,21ns,31ns))}

.ENDS K555SP1
*
*
* ----------------------------------------------------------- K155LP5 ------
*  Quad 2-Input Exclusive-Or Gates
*
*  The TTL Logic Data Book, 1988, TI Pages 2-271 to 2-275
*  bss    2/25/94
*
.SUBCKT K155LP5 1 2 3
+     optional:  DPWR=$G_DPWR DGND=$G_DGND
+     params:  MNTYMXDLY=0 IO_LEVEL=0

U1 xor DPWR DGND
+     1 2 1Y_O
+     D0_GATE IO_STD MNTYMXDLY={MNTYMXDLY} IO_LEVEL={IO_LEVEL}

U2DLY PINDLY(1,0,2) DPWR DGND
+     1Y_O
+     1 2
+     3
+     IO_STD MNTYMXDLY={MNTYMXDLY} IO_LEVEL={IO_LEVEL}
+
+  PINDLY:
+     3 = {
+        CASE(
+           CHANGED(1,0) & 2=='1 & TRN_LH, DELAY(-1,18ns,30ns),
+           CHANGED(2,0) & 1=='1 & TRN_LH, DELAY(-1,18ns,30ns),
+           CHANGED(1,0) & 2=='1 & TRN_HL, DELAY(-1,13ns,22ns),
+           CHANGED(2,0) & 1=='1 & TRN_HL, DELAY(-1,13ns,22ns),
+           CHANGED(1,0) & 2=='0 & TRN_LH, DELAY(-1,15ns,23ns),
+           CHANGED(2,0) & 1=='0 & TRN_LH, DELAY(-1,15ns,23ns),
+           CHANGED(1,0) & 2=='0 & TRN_HL, DELAY(-1,11ns,17ns),
+           CHANGED(2,0) & 1=='0 & TRN_HL, DELAY(-1,11ns,17ns),
+           DELAY(-1,19ns,31ns))}

.ENDS K155LP5
*

*
*
* ----------------------------------------------------------- K155LP5_X4 ------
*  Quad 2-Input Exclusive-Or Gates
*
*  The TTL Logic Data Book, 1988, TI Pages 2-271 to 2-275
*  bss    2/25/94
*
.SUBCKT K155LP5_X4 1 2 3 4 5 6 7 8 9 10 11 12
+     optional:  DPWR=$G_DPWR DGND=$G_DGND
+     params:  MNTYMXDLY=0 IO_LEVEL=0

U1 xor DPWR DGND
+     1 2 1Y_O
+     D0_GATE IO_STD MNTYMXDLY={MNTYMXDLY} IO_LEVEL={IO_LEVEL}

U2DLY PINDLY(1,0,2) DPWR DGND
+     1Y_O
+     1 2
+     3
+     IO_STD MNTYMXDLY={MNTYMXDLY} IO_LEVEL={IO_LEVEL}
+
+  PINDLY:
+     3 = {
+        CASE(
+           CHANGED(1,0) & 2=='1 & TRN_LH, DELAY(-1,18ns,30ns),
+           CHANGED(2,0) & 1=='1 & TRN_LH, DELAY(-1,18ns,30ns),
+           CHANGED(1,0) & 2=='1 & TRN_HL, DELAY(-1,13ns,22ns),
+           CHANGED(2,0) & 1=='1 & TRN_HL, DELAY(-1,13ns,22ns),
+           CHANGED(1,0) & 2=='0 & TRN_LH, DELAY(-1,15ns,23ns),
+           CHANGED(2,0) & 1=='0 & TRN_LH, DELAY(-1,15ns,23ns),
+           CHANGED(1,0) & 2=='0 & TRN_HL, DELAY(-1,11ns,17ns),
+           CHANGED(2,0) & 1=='0 & TRN_HL, DELAY(-1,11ns,17ns),
+           DELAY(-1,19ns,31ns))}

U3 xor DPWR DGND
+     4 5 4Y_O
+     D0_GATE IO_STD MNTYMXDLY={MNTYMXDLY} IO_LEVEL={IO_LEVEL}

U4DLY PINDLY(1,0,2) DPWR DGND
+     4Y_O
+     4 5
+     6
+     IO_STD MNTYMXDLY={MNTYMXDLY} IO_LEVEL={IO_LEVEL}
+
+  PINDLY:
+     6 = {
+        CASE(
+           CHANGED(4,0) & 5=='1 & TRN_LH, DELAY(-1,18ns,30ns),
+           CHANGED(5,0) & 4=='1 & TRN_LH, DELAY(-1,18ns,30ns),
+           CHANGED(4,0) & 5=='1 & TRN_HL, DELAY(-1,13ns,22ns),
+           CHANGED(5,0) & 4=='1 & TRN_HL, DELAY(-1,13ns,22ns),
+           CHANGED(4,0) & 5=='0 & TRN_LH, DELAY(-1,15ns,23ns),
+           CHANGED(5,0) & 4=='0 & TRN_LH, DELAY(-1,15ns,23ns),
+           CHANGED(4,0) & 5=='0 & TRN_HL, DELAY(-1,11ns,17ns),