*
* Ver:          3.2
* Name:         21555.ibs
* Rev:          0.3
* Date:         10/1/2001
* Source:       From silicon level SPICE model at Intel Corporation.
* Notes:        The following information corresponds to the ____ chip.
* Disclaimer:   This information is for modeling purposes only and is not
*               guaranteed.
* Copyright:    Copyright 2000, Intel Corporation, All Rights Reserved.
*
* Component:    21555
* Manufacturer: Intel Corporation
* Output file:  E:\mc8\LIBRARY\Intel.lib
*
*
* Output Buffer Models:
*    PCI_IO_TYPVCC_LOWVFIX
*    PCI_IO_TYPVCC_HIGHVFIX
*    PCI_IO_MINVCC_LOWVFIX
*    PCI_IO_MINVCC_HIGHVFIX
*    PCI_IO_MAXVCC_LOWVFIX
*    PCI_IO_MAXVCC_HIGHVFIX
*
* Total: 6 Pin Models Created
*
*
.SUBCKT PCI_IO_TYPVCC_PULLUP 1 2 3 4
E1 1 2 TABLE {V(3,4)} = 
+-3.3,0.0599636
+-3.15,0.0591729
+-3.05,0.0586457
+-2.95,0.0581186
+-2.9,0.057855
+-2.85,0.0575914
+-2.75,0.0570643
+-2.65,0.0565372
+-2.55,0.0564746
+-2.5,0.0564433
+-2.4,0.0574251
+-2.25,0.0598096
+-2.2,0.0606045
+-2.1,0.0621942
+-2.05,0.062989
+-1.95,0.0640409
+-1.85,0.0650928
+-1.7,0.0655506
+-1.65,0.0657032
+-1.6,0.0654505
+-1.55,0.0651979
+-1.5,0.0646887
+-1.45,0.0641794
+-1.4,0.0632997
+-1.35,0.0624201
+-1.3,0.061224
+-1.25,0.0600278
+-1.2,0.0584126
+-1.1,0.0551822
+-1,0.05141
+-0.95,0.049524
+-0.9,0.0475206
+-0.8,0.0435137
+-0.7,0.0391023
+-0.65,0.0362419
+-0.6,0.0333815
+-0.55,0.0310272
+-0.5,0.0286729
+-0.45,0.0263186
+-0.3,0.0200992
+0,0.00766035
+0.3,-0.00410325
+0.65,-0.0169348
+0.95,-0.0271809
+1,-0.0288886
+1.15,-0.0336678
+1.3,-0.0384469
+1.35,-0.0399349
+1.45,-0.0429109
+1.65,-0.0488628
+1.8,-0.0529578
+1.95,-0.0570527
+2.05,-0.0597826
+2.25,-0.0647456
+2.3,-0.0659864
+2.4,-0.0681737
+2.45,-0.0692673
+2.5,-0.0701221
+2.55,-0.0709768
+2.6,-0.0712683
+2.65,-0.0715599
+2.75,-0.0721429
+2.8,-0.0722793
+2.85,-0.0724157
+3,-0.0728248
+3.15,-0.073234
+3.35,-0.0735662
+3.8,-0.0743137
+3.95,-0.0745629
+4.15,-0.0746935
+4.25,-0.0747588
+4.4,-0.0748567
+4.45,-0.0748893
+4.55,-0.0753275
+4.6,-0.0752102
+4.65,-0.0750928
+4.7,-0.0752263
+4.8,-0.0754932
+4.95,-0.0752639
+5,-0.0751874
+5.1,-0.0752728
+5.2,-0.0753582
+5.25,-0.0754009
+5.3,-0.0753137
+5.4,-0.0751392
+5.45,-0.0753831
+5.55,-0.0751112
+5.65,-0.0752466
+5.7,-0.0753143
+5.75,-0.075382
+6,-0.0750283
+6.05,-0.0753157
+6.1,-0.0752728
+6.2,-0.075187
+6.3,-0.0751013
+6.35,-0.0754325
+6.4,-0.0751806
+6.45,-0.0752544
+6.5,-0.0753282
+6.55,-0.0754019
.ENDS PCI_IO_TYPVCC_PULLUP
*
.SUBCKT PCI_IO_TYPVCC_PULLDOWN 1 2 3 4
E1 1 2 TABLE {V(3,4)} = 
+-3.3,-0.00191033
+-2.85,-0.00256962
+-2.75,-0.00271612
+-2.7,-0.00278938
+-2.65,-0.00286263
+-2.35,-0.00330216
+-2.3,-0.00337541
+-1.95,-0.00490076
+-1.9,-0.00511867
+-1.75,-0.0065254
+-1.7,-0.00699431
+-1.6,-0.00844455
+-1.55,-0.00916967
+-1.5,-0.0103467
+-1.45,-0.0115238
+-1.4,-0.0134182
+-1.35,-0.0153125
+-1.3,-0.0186434
+-1.25,-0.0219743
+-1.2,-0.0277706
+-1.15,-0.0359727
+-1.1,-0.0481289
+-1.05,-0.0635121
+-1,-0.0788953
+-0.95,-0.0914474
+-0.9,-0.0966035
+-0.85,-0.0993838
+-0.8,-0.0965925
+-0.75,-0.0938013
+-0.7,-0.0902109
+-0.65,-0.0866204
+-0.6,-0.0822264
+-0.55,-0.0768389
+-0.5,-0.0714514
+-0.45,-0.064991
+-0.35,-0.0509394
+-0.3,-0.0439136
+0,-1.73855e-005
+0.15,0.0211865
+0.25,0.0353225
+0.3,0.0418158
+0.45,0.0612957
+0.5,0.067789
+0.6,0.0795144
+0.65,0.085377
+0.75,0.0971024
+0.85,0.107745
+0.9,0.113066
+1,0.122975
+1.05,0.127484
+1.2,0.141013
+1.25,0.144982
+1.35,0.152919
+1.45,0.16005
+1.65,0.172275
+1.7,0.174785
+1.75,0.177294
+1.8,0.179415
+1.9,0.183656
+1.95,0.185027
+2,0.186397
+2.05,0.187223
+2.1,0.188049
+2.2,0.188929
+2.3,0.18981
+2.35,0.19025
+2.4,0.190437
+2.5,0.190812
+2.65,0.191374
+2.85,0.192124
+3.15,0.192588
+3.4,0.192975
+3.5,0.193129
+3.6,0.193284
+3.75,0.193516
+3.9,0.194781
+4.05,0.198578
+4.2,0.202376
+4.25,0.203641
+4.4,0.208935
+4.55,0.214228
+4.65,0.217757
+4.7,0.219312
+4.85,0.223979
+4.95,0.226597
+5,0.227906
+5.05,0.229215
+5.1,0.230328
+5.25,0.233668
+5.35,0.235478
+5.45,0.237288
+5.55,0.239098
+5.65,0.240435
+5.75,0.241773
+5.85,0.24311
+5.95,0.24409
+6.1,0.245559
+6.2,0.246539
+6.25,0.246884
+6.55,0.248952
.ENDS PCI_IO_TYPVCC_PULLDOWN
*
.SUBCKT PCI_IO_TYPVCC_POWER_CLAMP 1 2 3 4
G1 1 2 TABLE {V(3,4)} = 
+-3.3,1.315
+-3.25,1.29065
+-3.2,1.257
+-3.15,1.22872
+-3.1,1.20011
+-3.05,1.17057
+-3,1.14274
+-2.95,1.11213
+-2.9,1.08323
+-2.85,1.05613
+-2.8,1.02577
+-2.75,0.994613
+-2.7,0.971851
+-2.65,0.949233
+-2.6,0.918776
+-2.55,0.888319
+-2.5,0.857862
+-2.45,0.825948
+-2.4,0.788933
+-2.35,0.764605
+-2.3,0.748629
+-2.25,0.719137
+-2.2,0.690647
+-2.15,0.662476
+-2.1,0.635196
+-2.05,0.60772
+-2,0.580725
+-1.95,0.557686
+-1.9,0.526891
+-1.85,0.499632
+-1.8,0.47281
+-1.75,0.439439
+-1.7,0.420307
+-1.65,0.393719
+-1.6,0.367068
+-1.55,0.34194
+-1.5,0.316062
+-1.45,0.287901
+-1.4,0.266491
+-1.35,0.240986
+-1.3,0.216739
+-1.25,0.192805
+-1.2,0.167304
+-1.15,0.142573
+-1.1,0.121196
+-1.05,0.0981208
+-1,0.0760597
+-0.95,0.0549658
+-0.9,0.0362903
+-0.85,0.0198529
+-0.8,0.0084168
+-0.75,0.00251917
+-0.7,0.000451635
+-0.65,3.69814e-005
+-0.6,6.0893e-006
+-0.55,1.12473e-006
+-0.5,3.65501e-007
+-0.45,3.71939e-008
+-0.4,2.32142e-008
+-0.35,9.23455e-009
+-0.3,-2.73525e-009
+-0.25,-2.58562e-009
+-0.2,-2.45812e-009
+-0.15,-2.36063e-009
+-0.1,-2.26313e-009
+-0.05,-2.16564e-009
+0,-2.15525e-009
+0.2,-2.02463e-009
+0.25,-1.99198e-009
+0.35,-1.92667e-009
+0.4,-1.89401e-009
+0.45,-1.86136e-009
+0.5,-1.8287e-009
+0.55,-1.79605e-009
+0.6,-1.76339e-009
+0.7,-1.69808e-009
+0.85,-1.60011e-009
+1.1,-1.43684e-009
+1.2,-1.37153e-009
+1.3,-1.30621e-009
+1.35,-1.27356e-009
+1.7,-1.04497e-009
+1.85,-9.47005e-010
+2.1,-7.83729e-010
+2.15,-7.51073e-010
+2.25,-6.85763e-010
+2.5,-5.22486e-010
+2.6,-4.57175e-010
+2.65,-4.2452e-010
+2.7,-3.91864e-010
+2.85,-2.93898e-010
+2.9,-2.61243e-010
+2.95,-2.28587e-010
+3,-1.95932e-010
+3.1,-1.30621e-010
+3.15,-9.79661e-011
+3.25,-3.26552e-011
+3.3,1e-015
+3.5,1e-015
+6.55,1e-015
.ENDS PCI_IO_TYPVCC_POWER_CLAMP
*
.SUBCKT PCI_IO_TYPVCC_GND_CLAMP 1 2 3 4
G1 1 2 TABLE {V(3,4)} = 
+-3.3,-1.67411
+-3.25,-1.63804
+-3.2,-1.60183
+-3.15,-1.56583
+-3.1,-1.5299
+-3.05,-1.49396
+-3,-1.4579
+-2.95,-1.42185
+-2.9,-1.38594
+-2.85,-1.34992
+-2.8,-1.31397
+-2.75,-1.27812
+-2.7,-1.24218
+-2.65,-1.20624
+-2.6,-1.1704
+-2.55,-1.13457
+-2.5,-1.09874
+-2.45,-1.06277
+-2.4,-1.02713
+-2.35,-0.991341
+-2.3,-0.955633
+-2.25,-0.920042
+-2.2,-0.884359
+-2.15,-0.84881
+-2.1,-0.813106
+-2.05,-0.777651
+-2,-0.742163
+-1.95,-0.706755
+-1.9,-0.671559
+-1.85,-0.636039
+-1.8,-0.600785
+-1.75,-0.565771
+-1.7,-0.530723
+-1.65,-0.495816
+-1.6,-0.460987
+-1.55,-0.426392
+-1.5,-0.391781
+-1.45,-0.357575
+-1.4,-0.323552
+-1.35,-0.289629
+-1.3,-0.256371
+-1.25,-0.22336
+-1.2,-0.19098
+-1.15,-0.159442
+-1.1,-0.128908
+-1.05,-0.100155
+-1,-0.0739298
+-0.95,-0.0520121
+-0.9,-0.0383819
+-0.85,-0.0273008
+-0.8,-0.0219157
+-0.75,-0.017192
+-0.7,-0.0129255
+-0.65,-0.0090823
+-0.6,-0.00594165
+-0.55,-0.00353447
+-0.5,-0.00181337
+-0.45,-0.000906016
+-0.4,-0.000592241
+-0.35,-0.000278466
+-0.3,-8.58507e-006
+-0.25,-3.37837e-006
+-0.2,-3.33092e-007
+-0.15,-2.20954e-007
+-0.1,-1.08816e-007
+-0.05,3.3223e-009
+0,4.8315e-009
+0.1,4.68509e-009
+0.15,4.61188e-009
+0.2,4.53868e-009
+0.3,4.39227e-009
+0.35,4.31906e-009
+0.45,4.17266e-009
+0.5,4.09945e-009
+0.65,3.87984e-009
+0.7,3.80663e-009
+0.8,3.66022e-009
+0.85,3.58702e-009
+1.05,3.2942e-009
+1.1,3.221e-009
+1.2,3.07459e-009
+1.35,2.85498e-009
+1.7,2.34254e-009
+2,1.90332e-009
+2.05,1.83011e-009
+2.1,1.75691e-009
+2.15,1.6837e-009
+2.2,1.6105e-009
+2.25,1.53729e-009
+2.4,1.31768e-009
+2.45,1.24448e-009
+2.6,1.02486e-009
+2.75,8.0525e-010
+2.85,6.58841e-010
+3,4.39227e-010
+3.15,2.19614e-010
+3.3,1e-015
+3.5,1e-015
+3.55,1e-015
+6.55,1e-015
.ENDS PCI_IO_TYPVCC_GND_CLAMP
*
*
.SUBCKT PWL_PCI_IO_TYPVCC_LOWVFIX IN OUT;for debug
V1 RISE 0 DC  0 AC 1 0 PWL NOBRKPNTS TRIGGER={V(IN)>=1.6665} 
+0,0.000104916
+5.29997e-010,-0.00134281
+6.5e-010,-0.00167061
+7.40004e-010,-0.00543594
+9.79995e-010,-0.0154761
+1.1e-009,-0.0204965
+1.15001e-009,-0.0252462
+1.16999e-009,-0.0271449
+1.26999e-009,-0.0366433
+1.30999e-009,-0.0404426
+1.31e-009,-0.0404432
+1.38999e-009,-0.0531968
+1.43999e-009,-0.0611685
+1.45e-009,-0.0627639
+1.46999e-009,-0.0690155
+1.47001e-009,-0.0690199
+1.50999e-009,-0.0815231
+1.52e-009,-0.0846522
+1.55999e-009,-0.106003
+1.59999e-009,-0.127357
+1.62e-009,-0.138039
+1.63999e-009,-0.142976
+1.66e-009,-0.147917
+1.66999e-009,-0.148295
+1.69e-009,-0.14905
+1.71999e-009,-0.144364
+1.73e-009,-0.1428
+1.75999e-009,-0.130552
+1.76001e-009,-0.130546
+1.79e-009,-0.118298
+1.79999e-009,-0.111302
+1.83999e-009,-0.0832918
+1.85e-009,-0.0762831
+1.88999e-009,-0.0383923
+1.89001e-009,-0.038375
+1.9e-009,-0.0289088
+1.94e-009,0.0161853
+1.98e-009,0.0675617
+2.00999e-009,0.111625
+2.04e-009,0.155716
+2.08001e-009,0.220545
+2.09e-009,0.236732
+2.09999e-009,0.254087
+2.14e-009,0.323593
+2.15999e-009,0.360797
+2.16001e-009,0.360835
+2.20999e-009,0.453854
+2.25001e-009,0.528339
+2.31e-009,0.639989
+2.32999e-009,0.674378
+2.33001e-009,0.674416
+2.41e-009,0.81203
+2.41001e-009,0.812048
+2.45999e-009,0.891003
+2.51001e-009,0.970032
+2.51999e-009,0.985792
+2.53e-009,1.00161
+2.55999e-009,1.04591
+2.58999e-009,1.09022
+2.60001e-009,1.10503
+2.63999e-009,1.16408
+2.68999e-009,1.23794
+2.69001e-009,1.23798
+2.7e-009,1.25274
+2.74999e-009,1.33424
+2.77e-009,1.36688
+2.82001e-009,1.45195
+2.84999e-009,1.50294
+2.91e-009,1.60502
+2.94001e-009,1.65201
+2.95999e-009,1.68328
+2.96e-009,1.68331
+3e-009,1.73999
+3.03e-009,1.7789
+3.08e-009,1.8326
+3.13e-009,1.87268
+3.22e-009,1.92071
+3.31e-009,1.94466
+3.31002e-009,1.94466
+3.41e-009,1.95669
+3.45002e-009,1.95805
+3.51e-009,1.96009
+3.51002e-009,1.96009
+3.58002e-009,1.95982
+3.82002e-009,1.95892
+3.90002e-009,1.95862
+3.99002e-009,1.95828
+4.23002e-009,1.95737
+4.35002e-009,1.95692
+4.36e-009,1.95688
+4.44002e-009,1.95706
+4.52002e-009,1.95724
+4.61002e-009,1.95744
+4.68002e-009,1.95759
+4.76002e-009,1.95777
+4.93002e-009,1.95815
+5.09002e-009,1.95851
+5.26002e-009,1.95888
+8.38004e-009,1.96583
+9.99005e-009,1.96942
V2 FALL 0 DC  0 AC 1 0 PWL NOBRKPNTS TRIGGER={V(IN)<1.6665} 
+0,1.96942
+6.19997e-010,1.96909
+7e-010,1.96905
+7.40004e-010,1.96801
+8.19996e-010,1.96593
+8.6e-010,1.96489
+9.00004e-010,1.96191
+9.39996e-010,1.95893
+9.4e-010,1.95893
+1.02e-009,1.94828
+1.03e-009,1.94605
+1.06001e-009,1.93935
+1.09999e-009,1.93043
+1.11e-009,1.9282
+1.13999e-009,1.91783
+1.15001e-009,1.91437
+1.19e-009,1.90053
+1.20999e-009,1.89039
+1.26999e-009,1.85995
+1.27e-009,1.85995
+1.31e-009,1.83358
+1.31001e-009,1.83357
+1.32999e-009,1.81691
+1.38999e-009,1.76689
+1.39e-009,1.76688
+1.39001e-009,1.76688
+1.44e-009,1.71528
+1.47001e-009,1.67977
+1.49e-009,1.65612
+1.54999e-009,1.57439
+1.55001e-009,1.57437
+1.57e-009,1.54713
+1.59999e-009,1.50272
+1.60001e-009,1.5027
+1.64001e-009,1.44346
+1.67999e-009,1.38426
+1.69e-009,1.36944
+1.72001e-009,1.32724
+1.75e-009,1.28506
+1.80999e-009,1.20914
+1.81001e-009,1.20912
+1.83999e-009,1.17118
+1.88999e-009,1.1079
+1.93e-009,1.05727
+1.93999e-009,1.04382
+1.98999e-009,0.976493
+2e-009,0.963015
+2.00001e-009,0.963001
+2.04999e-009,0.887646
+2.05e-009,0.887631
+2.09e-009,0.821627
+2.09001e-009,0.821609
+2.12999e-009,0.750163
+2.14e-009,0.732274
+2.15999e-009,0.693435
+2.17999e-009,0.654577
+2.19999e-009,0.615718
+2.20001e-009,0.615678
+2.21e-009,0.596269
+2.22999e-009,0.55545
+2.26999e-009,0.47377
+2.31999e-009,0.371669
+2.34e-009,0.330806
+2.37e-009,0.275901
+2.38999e-009,0.243967
+2.39e-009,0.243949
+2.41e-009,0.217401
+2.44e-009,0.184452
+2.49e-009,0.14785
+2.51001e-009,0.139211
+2.55e-009,0.12195
+2.58999e-009,0.111593
+2.60001e-009,0.108996
+2.63e-009,0.10123
+2.82e-009,0.0718634
+2.82001e-009,0.0718622
+2.84999e-009,0.0690829
+2.86001e-009,0.0681532
+2.90001e-009,0.0644442
+2.94001e-009,0.0607352
+2.98001e-009,0.0570262
+3.06001e-009,0.0496082
+3.08e-009,0.047755
+3.15002e-009,0.0443147
+3.23002e-009,0.0403837
+3.27998e-009,0.0379283
+3.41002e-009,0.0315388
+3.5e-009,0.0271173
+3.53002e-009,0.0264102
+3.70998e-009,0.0221709
+3.72002e-009,0.0219345
+3.91002e-009,0.0174588
+3.98e-009,0.0158103
+4.36002e-009,0.012886
+5.09002e-009,0.00726843
+5.15998e-009,0.00673014
+5.5e-009,0.00411358
+5.75003e-009,0.00389036
+6.73003e-009,0.00301542
+9.99005e-009,0.000104916
E1 OUT 0 VALUE = {V(RISE)*(V(IN)>=1.6665)+V(FALL)*(V(IN)<=1.6665)}
.ENDS
*
*
.SUBCKT PWL_PCI_IO_TYPVCC_HIGHVFIX IN OUT;for debug
V1 RISE 0 DC  0 AC 1 0 PWL NOBRKPNTS TRIGGER={V(IN)>=1.6665} 
+0,0.419352
+4.49998e-010,0.417636
+8.19996e-010,0.416224
+9.4e-010,0.415766
+9.79995e-010,0.41701
+9.80005e-010,0.41701
+1.05999e-009,0.419497
+1.10999e-009,0.421052
+1.11e-009,0.421052
+1.15001e-009,0.424916
+1.16999e-009,0.426847
+1.19e-009,0.428779
+1.20999e-009,0.432742
+1.24999e-009,0.440671
+1.26999e-009,0.444636
+1.27e-009,0.444637
+1.28999e-009,0.451298
+1.30999e-009,0.457962
+1.31e-009,0.457964
+1.31001e-009,0.457967
+1.35e-009,0.478076
+1.35999e-009,0.48611
+1.38999e-009,0.510225
+1.39e-009,0.51023
+1.42999e-009,0.567792
+1.43e-009,0.567802
+1.45e-009,0.613151
+1.46999e-009,0.677665
+1.47e-009,0.677687
+1.47001e-009,0.677717
+1.47999e-009,0.71992
+1.49e-009,0.762214
+1.51e-009,0.863969
+1.51999e-009,0.92209
+1.54999e-009,1.09658
+1.56001e-009,1.15483
+1.58e-009,1.27111
+1.61e-009,1.43398
+1.63e-009,1.5334
+1.63999e-009,1.57887
+1.64001e-009,1.57894
+1.66e-009,1.66992
+1.67999e-009,1.75203
+1.68001e-009,1.7521
+1.69e-009,1.79313
+1.71e-009,1.86872
+1.71999e-009,1.903
+1.72001e-009,1.90306
+1.75999e-009,2.04024
+1.76001e-009,2.0403
+1.79e-009,2.1432
+1.79999e-009,2.18161
+1.80001e-009,2.18168
+1.83999e-009,2.33539
+1.84001e-009,2.33546
+1.85e-009,2.37386
+1.85001e-009,2.37389
+1.87999e-009,2.46819
+1.88001e-009,2.46825
+1.89e-009,2.49967
+1.89001e-009,2.4997
+1.89999e-009,2.52648
+1.9e-009,2.52651
+1.93001e-009,2.59589
+1.94e-009,2.61899
+1.97999e-009,2.68928
+2e-009,2.72445
+2.00001e-009,2.72447
+2.02999e-009,2.76691
+2.08001e-009,2.83773
+2.1e-009,2.86603
+2.10999e-009,2.87814
+2.15999e-009,2.93874
+2.16001e-009,2.93876
+2.17001e-009,2.95089
+2.19e-009,2.97511
+2.20001e-009,2.98549
+2.21001e-009,2.99585
+2.24001e-009,3.02694
+2.24999e-009,3.03728
+2.25e-009,3.03729
+2.25001e-009,3.0373
+2.29001e-009,3.06977
+2.31e-009,3.086
+2.33001e-009,3.09764
+2.37001e-009,3.12091
+2.39e-009,3.13254
+2.43001e-009,3.14781
+2.44e-009,3.15162
+2.48999e-009,3.16033
+2.49e-009,3.16034
+2.51001e-009,3.16148
+2.56e-009,3.16434
+2.94001e-009,3.16716
+2.96e-009,3.1673
+3.06001e-009,3.16737
+3.14001e-009,3.16743
+3.27002e-009,3.16752
+3.60002e-009,3.16774
+9.99005e-009,3.17214
V2 FALL 0 DC  0 AC 1 0 PWL NOBRKPNTS TRIGGER={V(IN)<1.6665} 
+0,3.17214
+6.59997e-010,3.17484
+7.8e-010,3.17533
+8.99996e-010,3.18046
+9.00004e-010,3.18046
+9.4e-010,3.18217
+1.05999e-009,3.19325
+1.11e-009,3.19786
+1.14001e-009,3.20274
+1.20999e-009,3.21412
+1.27e-009,3.22388
+1.31001e-009,3.23339
+1.42999e-009,3.26191
+1.44e-009,3.26429
+1.60001e-009,3.32107
+1.7e-009,3.35655
+1.75999e-009,3.37435
+1.79999e-009,3.38622
+1.80999e-009,3.38919
+1.83999e-009,3.39809
+1.84999e-009,3.40106
+1.87999e-009,3.40996
+1.89e-009,3.41293
+1.92001e-009,3.42946
+1.93e-009,3.43496
+1.93999e-009,3.43359
+1.94e-009,3.43359
+1.97e-009,3.40471
+1.97999e-009,3.38918
+1.98e-009,3.38916
+2e-009,3.33779
+2.05999e-009,3.13367
+2.09e-009,3.03156
+2.12999e-009,2.90756
+2.14e-009,2.87652
+2.16999e-009,2.79565
+2.21e-009,2.68776
+2.24001e-009,2.61489
+2.24999e-009,2.59066
+2.30999e-009,2.44499
+2.33001e-009,2.39637
+2.35e-009,2.34784
+2.37001e-009,2.30176
+2.41001e-009,2.20964
+2.41999e-009,2.18666
+2.43001e-009,2.16358
+2.46001e-009,2.09449
+2.47e-009,2.07149
+2.56001e-009,1.89164
+2.57999e-009,1.85173
+2.61e-009,1.79177
+2.63999e-009,1.72809
+2.64001e-009,1.72803
+2.65e-009,1.70683
+2.68999e-009,1.61474
+2.74999e-009,1.47656
+2.79999e-009,1.36141
+2.84999e-009,1.24627
+2.89e-009,1.15412
+2.95999e-009,1.00715
+2.99e-009,0.944116
+3.03e-009,0.870226
+3.06999e-009,0.808583
+3.07e-009,0.80856
+3.07001e-009,0.808543
+3.13e-009,0.738101
+3.22e-009,0.671714
+3.23002e-009,0.667413
+3.27998e-009,0.645953
+3.31e-009,0.633063
+3.41e-009,0.602578
+3.49998e-009,0.582495
+3.50002e-009,0.582488
+3.6e-009,0.560173
+3.74002e-009,0.537443
+3.79e-009,0.529328
+3.92998e-009,0.512755
+3.98e-009,0.506833
+3.98002e-009,0.506832
+4.07002e-009,0.499753
+4.16002e-009,0.492675
+4.23002e-009,0.487169
+4.31002e-009,0.480877
+4.35998e-009,0.476948
+4.36e-009,0.476947
+4.36002e-009,0.476946
+4.44002e-009,0.473822
+4.60002e-009,0.467574
+4.76002e-009,0.461326
+4.93002e-009,0.454687
+5.11e-009,0.447659
+5.25002e-009,0.446011
+5.74003e-009,0.440244
+6.03997e-009,0.436714
+6.08003e-009,0.436242
+6.73003e-009,0.428593
+7.01e-009,0.425298
+7.39004e-009,0.424539
+8.39004e-009,0.422544
+9.99005e-009,0.419352
E1 OUT 0 VALUE = {V(RISE)*(V(IN)>=1.6665)+V(FALL)*(V(IN)<=1.6665)}
.ENDS
*
*
.SUBCKT PCI_IO_TYPVCC_VKUR 10 IN EN
VKUR 10 0 PWL NOBRKPNTS TRIGGER={(V(IN)>=1.6665)*(V(EN)>=1.6665)}
+ (0,-6.32443e-006) (1e-010,-0.000769157) (2e-010,-0.00139067) (3e-010,-0.00201235) (4e-010,-0.00263429)
+ (5e-010,-0.00325641) (6e-010,-0.0038788) (7e-010,-0.0110169) (8e-010,-0.0202965) (9e-010,-0.0293999)
+ (1e-009,-0.0380861) (1.1e-009,-0.0464542) (1.2e-009,-0.0661166) (1.3e-009,-0.0793464) (1.4e-009,-0.090352)
+ (1.5e-009,-0.0746341) (1.6e-009,-0.0831556) (1.7e-009,-0.0510557) (1.8e-009,-0.00192977) (1.9e-009,0.0423625)
+ (2e-009,0.112519) (2.1e-009,0.176712) (2.2e-009,0.236696) (2.3e-009,0.28593) (2.4e-009,0.334449)
+ (2.5e-009,0.394689) (2.6e-009,0.459301) (2.7e-009,0.536103) (2.8e-009,0.65295) (2.9e-009,0.775634)
+ (3e-009,0.885631) (3.1e-009,0.942693) (3.2e-009,0.985944) (3.3e-009,0.997753) (3.4e-009,0.99974)
+ (3.5e-009,0.99648) (3.6e-009,0.99279) (3.7e-009,0.992253) (3.8e-009,0.991718) (3.9e-009,0.991183)
+ (4e-009,0.990642) (4.1e-009,0.990104) (4.2e-009,0.989565) (4.3e-009,0.989035) (4.4e-009,0.989351)
+ (4.5e-009,0.989523) (4.6e-009,0.989689) (4.7e-009,0.989854) (4.8e-009,0.990024) (4.9e-009,0.990194)
+ (5e-009,0.990367) (5.1e-009,0.990531) (5.2e-009,0.990695) (5.3e-009,0.990865) (5.4e-009,0.991035)
+ (5.5e-009,0.991204) (5.6e-009,0.991374) (5.7e-009,0.991543) (5.8e-009,0.991713) (5.9e-009,0.991882)
+ (6e-009,0.992052) (6.1e-009,0.992221) (6.2e-009,0.992391) (6.3e-009,0.99256) (6.4e-009,0.99273)
+ (6.5e-009,0.9929) (6.6e-009,0.993069) (6.7e-009,0.993239) (6.8e-009,0.993409) (6.9e-009,0.993579)
+ (7e-009,0.993749) (7.1e-009,0.993918) (7.2e-009,0.994088) (7.3e-009,0.994258) (7.4e-009,0.994428)
+ (7.5e-009,0.994598) (7.6e-009,0.994768) (7.7e-009,0.994938) (7.8e-009,0.995108) (7.9e-009,0.995278)
+ (8e-009,0.995448) (8.1e-009,0.995618) (8.2e-009,0.995788) (8.3e-009,0.995958) (8.4e-009,0.996129)
+ (8.5e-009,0.996299) (8.6e-009,0.99647) (8.7e-009,0.99664) (8.8e-009,0.996811) (8.9e-009,0.996981)
+ (9e-009,0.997152) (9.1e-009,0.997323) (9.2e-009,0.997493) (9.3e-009,0.997664) (9.4e-009,0.997835)
+ (9.5e-009,0.998005) (9.6e-009,0.998176) (9.7e-009,0.998347) (9.8e-009,0.998518) (9.9e-009,0.998688)
+ (1e-008,0.998783) (1.01e-008,0.998693) (1.02e-008,0.998693) (1.03e-008,0.998693) (1.04e-008,0.998693)
+ (1.05e-008,0.998693) (1.06e-008,0.998693) (1.07e-008,0.998693) (1.08e-008,0.998693) (1.09e-008,0.998693)
+ (1.1e-008,0.998693) (1.11e-008,0.998693) (1.12e-008,0.998693) (1.13e-008,0.998693) (1.14e-008,0.998693)
+ (1.15e-008,0.998693) (1.16e-008,0.998693) (1.17e-008,0.998693) (1.18e-008,0.998693) (1.19e-008,0.998693)
+ (1.2e-008,0.998693) (1.21e-008,0.998693) (1.22e-008,0.998693) (1.23e-008,0.998693) (1.24e-008,0.998693)
+ (1.25e-008,0.998693) (1.26e-008,0.998693) (1.27e-008,0.998693) (1.28e-008,0.998693) (1.29e-008,0.998693)
+ (1.3e-008,0.998693) (1.31e-008,0.998693) (1.32e-008,0.998693) (1.33e-008,0.998693) (1.34e-008,0.998693)
+ (1.35e-008,0.998693) (1.36e-008,0.998693) (1.37e-008,0.998693) (1.38e-008,0.998693) (1.39e-008,0.998693)
+ (1.4e-008,0.998693) (1.41e-008,0.998693) (1.42e-008,0.998693) (1.43e-008,0.998693) (1.44e-008,0.998693)
+ (1.45e-008,0.998693) (1.46e-008,0.998693) (1.47e-008,0.998693) (1.48e-008,0.998693) (1.49e-008,0.998693)
+ (1.5e-008,0.998693) (1.51e-008,0.998693) (1.52e-008,0.998693) (1.53e-008,0.998693) (1.54e-008,0.998693)
+ (1.55e-008,0.998693) (1.56e-008,0.998693) (1.57e-008,0.998693) (1.58e-008,0.998693) (1.59e-008,0.998693)
+ (1.6e-008,0.998693) (1.61e-008,0.998693) (1.62e-008,0.998693) (1.63e-008,0.998693) (1.64e-008,0.998693)
+ (1.65e-008,0.998693) (1.66e-008,0.998693) (1.67e-008,0.998693) (1.68e-008,0.998693) (1.69e-008,0.998693)
+ (1.7e-008,0.998693) (1.71e-008,0.998693) (1.72e-008,0.998693) (1.73e-008,0.998693) (1.74e-008,0.998693)
+ (1.75e-008,0.998693) (1.76e-008,0.998693) (1.77e-008,0.998693) (1.78e-008,0.998693) (1.79e-008,0.998693)
+ (1.8e-008,0.998693) (1.81e-008,0.998693) (1.82e-008,0.998693) (1.83e-008,0.998693) (1.84e-008,0.998693)
+ (1.85e-008,0.998693) (1.86e-008,0.998693) (1.87e-008,0.998693) (1.88e-008,0.998693) (1.89e-008,0.998693)
+ (1.9e-008,0.998693) (1.91e-008,0.998693) (1.92e-008,0.998693) (1.93e-008,0.998693) (1.94e-008,0.998693)
+ (1.95e-008,0.998693) (1.96e-008,0.998693) (1.97e-008,0.998693) (1.98e-008,0.998693) (1.99e-008,0.998693)
+ (2e-008,0.998693) (2.01e-008,0.998693) (2.02e-008,0.998693) (2.03e-008,0.998693) (2.04e-008,0.998693)
+ (2.05e-008,0.998693) (2.06e-008,0.998693) (2.07e-008,0.998693) (2.08e-008,0.998693) (2.09e-008,0.998693)
+ (2.1e-008,0.998693) (2.11e-008,0.998693) (2.12e-008,0.998693) (2.13e-008,0.998693) (2.14e-008,0.998693)
+ (2.15e-008,0.998693) (2.16e-008,0.998693) (2.17e-008,0.998693) (2.18e-008,0.998693) (2.19e-008,0.998693)
+ (2.2e-008,0.998693) (2.21e-008,0.998693) (2.22e-008,0.998693) (2.23e-008,0.998693) (2.24e-008,0.998693)
+ (2.25e-008,0.998693) (2.26e-008,0.998693) (2.27e-008,0.998693) (2.28e-008,0.998693) (2.29e-008,0.998693)
+ (2.3e-008,0.998693) (2.31e-008,0.998693) (2.32e-008,0.998693) (2.33e-008,0.998693) (2.34e-008,0.998693)
+ (2.35e-008,0.998693) (2.36e-008,0.998693) (2.37e-008,0.998693) (2.38e-008,0.998693) (2.39e-008,0.998693)
+ (2.4e-008,0.998693) (2.41e-008,0.998693) (2.42e-008,0.998693) (2.43e-008,0.998693) (2.44e-008,0.998693)
+ (2.45e-008,0.998693) (2.46e-008,0.998693) (2.47e-008,0.998693) (2.48e-008,0.998693) (2.49e-008,0.998693)
+ (2.5e-008,0.998693) (2.51e-008,0.998693) (2.52e-008,0.998693) (2.53e-008,0.998693) (2.54e-008,0.998693)
+ (2.55e-008,0.998693) (2.56e-008,0.998693) (2.57e-008,0.998693) (2.58e-008,0.998693) (2.59e-008,0.998693)
+ (2.6e-008,0.998693) (2.61e-008,0.998693) (2.62e-008,0.998693) (2.63e-008,0.998693) (2.64e-008,0.998693)
+ (2.65e-008,0.998693) (2.66e-008,0.998693) (2.67e-008,0.998693) (2.68e-008,0.998693) (2.69e-008,0.998693)
+ (2.7e-008,0.998693) (2.71e-008,0.998693) (2.72e-008,0.998693) (2.73e-008,0.998693) (2.74e-008,0.998693)
+ (2.75e-008,0.998693) (2.76e-008,0.998693) (2.77e-008,0.998693) (2.78e-008,0.998693) (2.79e-008,0.998693)
+ (2.8e-008,0.998693) (2.81e-008,0.998693) (2.82e-008,0.998693) (2.83e-008,0.998693) (2.84e-008,0.998693)
+ (2.85e-008,0.998693) (2.86e-008,0.998693) (2.87e-008,0.998693) (2.88e-008,0.998693) (2.89e-008,0.998693)
+ (2.9e-008,0.998693) (2.91e-008,0.998693) (2.92e-008,0.998693) (2.93e-008,0.998693) (2.94e-008,0.998693)
+ (2.95e-008,0.998693) (2.96e-008,0.998693) (2.97e-008,0.998693) (2.98e-008,0.998693) (2.99e-008,0.998693)
+ (3e-008,0.998693) (3.01e-008,0.998693) (3.02e-008,0.998693) (3.03e-008,0.998693) (3.04e-008,0.998693)
+ (3.05e-008,0.998693) (3.06e-008,0.998693) (3.07e-008,0.998693) (3.08e-008,0.998693) (3.09e-008,0.998693)
+ (3.1e-008,0.998693) (3.11e-008,0.998693) (3.12e-008,0.998693) (3.13e-008,0.998693) (3.14e-008,0.998693)
+ (3.15e-008,0.998693) (3.16e-008,0.998693) (3.17e-008,0.998693) (3.18e-008,0.998693) (3.19e-008,0.998693)
+ (3.2e-008,0.998693) (3.21e-008,0.998693) (3.22e-008,0.998693) (3.23e-008,0.998693) (3.24e-008,0.998693)
+ (3.25e-008,0.998693) (3.26e-008,0.998693) (3.27e-008,0.998693) (3.28e-008,0.998693) (3.29e-008,0.998693)
+ (3.3e-008,0.998693) (3.31e-008,0.998693) (3.32e-008,0.998693) (3.33e-008,0.998693) (3.34e-008,0.998693)
+ (3.35e-008,0.998693) (3.36e-008,0.998693) (3.37e-008,0.998693) (3.38e-008,0.998693) (3.39e-008,0.998693)
+ (3.4e-008,0.998693) (3.41e-008,0.998693) (3.42e-008,0.998693) (3.43e-008,0.998693) (3.44e-008,0.998693)
+ (3.45e-008,0.998693) (3.46e-008,0.998693) (3.47e-008,0.998693) (3.48e-008,0.998693) (3.49e-008,0.998693)
+ (3.5e-008,0.998693) (3.51e-008,0.998693) (3.52e-008,0.998693) (3.53e-008,0.998693) (3.54e-008,0.998693)
+ (3.55e-008,0.998693) (3.56e-008,0.998693) (3.57e-008,0.998693) (3.58e-008,0.998693) (3.59e-008,0.998693)
+ (3.6e-008,0.998693) (3.61e-008,0.998693) (3.62e-008,0.998693) (3.63e-008,0.998693) (3.64e-008,0.998693)
+ (3.65e-008,0.998693) (3.66e-008,0.998693) (3.67e-008,0.998693) (3.68e-008,0.998693) (3.69e-008,0.998693)
+ (3.7e-008,0.998693) (3.71e-008,0.998693) (3.72e-008,0.998693) (3.73e-008,0.998693) (3.74e-008,0.998693)
+ (3.75e-008,0.998693) (3.76e-008,0.998693) (3.77e-008,0.998693) (3.78e-008,0.998693) (3.79e-008,0.998693)
+ (3.8e-008,0.998693) (3.81e-008,0.998693) (3.82e-008,0.998693) (3.83e-008,0.998693) (3.84e-008,0.998693)
+ (3.85e-008,0.998693) (3.86e-008,0.998693) (3.87e-008,0.998693) (3.88e-008,0.998693) (3.89e-008,0.998693)
+ (3.9e-008,0.998693) (3.91e-008,0.998693) (3.92e-008,0.998693) (3.93e-008,0.998693) (3.94e-008,0.998693)
+ (3.95e-008,0.998693) (3.96e-008,0.998693) (3.97e-008,0.998693) (3.98e-008,0.998693) (3.99e-008,0.998693)
+ (4e-008,0.998693) (4.01e-008,0.998693) (4.02e-008,0.998693) (4.03e-008,0.998693) (4.04e-008,0.998693)
+ (4.05e-008,0.998693) (4.06e-008,0.998693) (4.07e-008,0.998693) (4.08e-008,0.998693) (4.09e-008,0.998693)
+ (4.1e-008,0.998693) (4.11e-008,0.998693) (4.12e-008,0.998693) (4.13e-008,0.998693) (4.14e-008,0.998693)
+ (4.15e-008,0.998693) (4.16e-008,0.998693) (4.17e-008,0.998693) (4.18e-008,0.998693) (4.19e-008,0.998693)
+ (4.2e-008,0.998693) (4.21e-008,0.998693) (4.22e-008,0.998693) (4.23e-008,0.998693) (4.24e-008,0.998693)
+ (4.25e-008,0.998693) (4.26e-008,0.998693) (4.27e-008,0.998693) (4.28e-008,0.998693) (4.29e-008,0.998693)
+ (4.3e-008,0.998693) (4.31e-008,0.998693) (4.32e-008,0.998693) (4.33e-008,0.998693) (4.34e-008,0.998693)
+ (4.35e-008,0.998693) (4.36e-008,0.998693) (4.37e-008,0.998693) (4.38e-008,0.998693) (4.39e-008,0.998693)
+ (4.4e-008,0.998693) (4.41e-008,0.998693) (4.42e-008,0.998693) (4.43e-008,0.998693) (4.44e-008,0.998693)
+ (4.45e-008,0.998693) (4.46e-008,0.998693) (4.47e-008,0.998693) (4.48e-008,0.998693) (4.49e-008,0.998693)
+ (4.5e-008,0.998693) (4.51e-008,0.998693) (4.52e-008,0.998693) (4.53e-008,0.998693) (4.54e-008,0.998693)
+ (4.55e-008,0.998693) (4.56e-008,0.998693) (4.57e-008,0.998693) (4.58e-008,0.998693) (4.59e-008,0.998693)
+ (4.6e-008,0.998693) (4.61e-008,0.998693) (4.62e-008,0.998693) (4.63e-008,0.998693) (4.64e-008,0.998693)
+ (4.65e-008,0.998693) (4.66e-008,0.998693) (4.67e-008,0.998693) (4.68e-008,0.998693) (4.69e-008,0.998693)
+ (4.7e-008,0.998693) (4.71e-008,0.998693) (4.72e-008,0.998693) (4.73e-008,0.998693) (4.74e-008,0.998693)
+ (4.75e-008,0.998693) (4.76e-008,0.998693) (4.77e-008,0.998693) (4.78e-008,0.998693) (4.79e-008,0.998693)
+ (4.8e-008,0.998693) (4.81e-008,0.998693) (4.82e-008,0.998693) (4.83e-008,0.998693) (4.84e-008,0.998693)
+ (4.85e-008,0.998693) (4.86e-008,0.998693) (4.87e-008,0.998693) (4.88e-008,0.998693) (4.89e-008,0.998693)
+ (4.9e-008,0.998693) (4.91e-008,0.998693) (4.92e-008,0.998693) (4.93e-008,0.998693) (4.94e-008,0.998693)
+ (4.95e-008,0.998693) (4.96e-008,0.998693) (4.97e-008,0.998693) (4.98e-008,0.998693) (4.99e-008,0.998693)
+
.ENDS
*
*
.SUBCKT PCI_IO_TYPVCC_VKDR 14 IN EN
VKDR 14 0 PWL NOBRKPNTS TRIGGER={(V(IN)>=1.6665)*(V(EN)>=1.6665)}
+ (0,1.00518) (1e-010,1.00548) (2e-010,1.0057) (3e-010,1.00592) (4e-010,1.00613)
+ (5e-010,1.00635) (6e-010,1.00657) (7e-010,0.998491) (8e-010,0.987673) (9e-010,0.977061)
+ (1e-009,0.959179) (1.1e-009,0.940814) (1.2e-009,0.881003) (1.3e-009,0.80504) (1.4e-009,0.611607)
+ (1.5e-009,0.232932) (1.6e-009,0.0774873) (1.7e-009,0.0666403) (1.8e-009,0.043991) (1.9e-009,0.0228686)
+ (2e-009,0.0317182) (2.1e-009,0.0239897) (2.2e-009,0.0168446) (2.3e-009,0.00776557) (2.4e-009,0.00690802)
+ (2.5e-009,0.00873855) (2.6e-009,0.00829176) (2.7e-009,0.00719563) (2.8e-009,0.00557512) (2.9e-009,0.00384539)
+ (3e-009,0.00245956) (3.1e-009,0.00170904) (3.2e-009,0.00113587) (3.3e-009,0.000964356) (3.4e-009,0.00091841)
+ (3.5e-009,0.000939767) (3.6e-009,0.000966719) (3.7e-009,0.000952103) (3.8e-009,0.000937927) (3.9e-009,0.000923761)
+ (4e-009,0.000909701) (4.1e-009,0.00089562) (4.2e-009,0.000881548) (4.3e-009,0.000867392) (4.4e-009,0.000842287)
+ (4.5e-009,0.00081904) (4.6e-009,0.000795856) (4.7e-009,0.000772683) (4.8e-009,0.000749448) (4.9e-009,0.000726203)
+ (5e-009,0.00070292) (5.1e-009,0.000679744) (5.2e-009,0.000656575) (5.3e-009,0.000633305) (5.4e-009,0.000610047)
+ (5.5e-009,0.000586784) (5.6e-009,0.000563515) (5.7e-009,0.000540242) (5.8e-009,0.000516964) (5.9e-009,0.00049368)
+ (6e-009,0.000470392) (6.1e-009,0.000447099) (6.2e-009,0.0004238) (6.3e-009,0.000400495) (6.4e-009,0.000377185)
+ (6.5e-009,0.000353873) (6.6e-009,0.000330551) (6.7e-009,0.000307229) (6.8e-009,0.000283901) (6.9e-009,0.000260567)
+ (7e-009,0.000237228) (7.1e-009,0.000213883) (7.2e-009,0.000190533) (7.3e-009,0.000167179) (7.4e-009,0.00014382)
+ (7.5e-009,0.000120455) (7.6e-009,9.70844e-005) (7.7e-009,7.37088e-005) (7.8e-009,5.03292e-005) (7.9e-009,2.69421e-005)
+ (8e-009,3.55506e-006) (8.1e-009,-1.98428e-005) (8.2e-009,-4.32426e-005) (8.3e-009,-6.66456e-005) (8.4e-009,-9.0059e-005)
+ (8.5e-009,-0.000113478) (8.6e-009,-0.000136903) (8.7e-009,-0.000160335) (8.8e-009,-0.000183766) (8.9e-009,-0.00020721)
+ (9e-009,-0.000230653) (9.1e-009,-0.000254103) (9.2e-009,-0.000277559) (9.3e-009,-0.000301016) (9.4e-009,-0.000324485)
+ (9.5e-009,-0.000347954) (9.6e-009,-0.000371429) (9.7e-009,-0.000394911) (9.8e-009,-0.000418393) (9.9e-009,-0.000441886)
+ (1e-008,-0.000456533) (1.01e-008,-0.000446688) (1.02e-008,-0.000446688) (1.03e-008,-0.000446688) (1.04e-008,-0.000446688)